LTspice 24.0.12 for Windows
Circuit: * Z:\LTspice\Draft1.asc
Start Time: Mon Feb 17 20:24:20 2025
Ignoring BSIM parameter XL
Ignoring BSIM parameter XW
Ignoring BSIM parameter XL
Ignoring BSIM parameter XW
solver = Normal
Maximum thread count: 2
tnom = 27
temp = 27
method = modified trap
Warning: Pd = 0 is less than W.
Warning: Ps = 0 is less than W.
Warning: Pd = 0 is less than W.
Warning: Ps = 0 is less than W.
.step v1=0
.step v1=1
.step v1=2
.step v1=3
.step v1=4
.step v1=5
Total elapsed time: 0.433 seconds.

